<?xml version="1.0" encoding="UTF-8"?>

<!-- generated on 06/04/20 11:01:26 by Eclipse SUMO netedit Version 1.3.1
<configuration xmlns:xsi="http://www.w3.org/2001/XMLSchema-instance" xsi:noNamespaceSchemaLocation="http://sumo.dlr.de/xsd/netconvertConfiguration.xsd">

    <input>
        <sumo-net-file value="C:\Users\Gman\Desktop\CrossRoad.net.net.xml"/>
    </input>

    <output>
        <output-file value="C:\Users\Gman\Desktop\CrossRoad.net.net.xml"/>
    </output>

    <processing>
        <geometry.max-grade.fix value="false"/>
        <offset.disable-normalization value="true"/>
        <opposites.guess.fix-lengths value="true"/>
        <lefthand value="false"/>
    </processing>

    <junctions>
        <no-internal-links value="false"/>
        <no-turnarounds value="true"/>
        <junctions.corner-detail value="0"/>
        <junctions.limit-turn-speed value="-1"/>
        <rectangular-lane-cut value="false"/>
    </junctions>

    <pedestrian>
        <walkingareas value="false"/>
    </pedestrian>

</configuration>
-->

<net version="1.3" xmlns:xsi="http://www.w3.org/2001/XMLSchema-instance" xsi:noNamespaceSchemaLocation="http://sumo.dlr.de/xsd/net_file.xsd">

    <location netOffset="500.00,500.00" convBoundary="-100.00,-100.00,100.00,100.00" origBoundary="-500.00,-500.00,500.00,500.00" projParameter="!"/>

    <edge id=":E_w0" function="walkingarea">
        <lane id=":E_w0_0" index="0" allow="pedestrian" speed="1.00" length="9.60" width="3.20" shape="100.00,3.20 100.00,6.40 100.00,-6.40 100.00,-3.20"/>
    </edge>
    <edge id=":M_0" function="internal">
        <lane id=":M_0_0" index="0" disallow="pedestrian rail_fast" speed="13.90" length="5.93" shape="-1.60,7.90 -1.99,5.14 -3.17,3.17 -3.90,2.74"/>
    </edge>
    <edge id=":M_1" function="internal">
        <lane id=":M_1_0" index="0" disallow="pedestrian rail_fast" speed="13.90" length="15.80" shape="-1.60,7.90 -1.60,-7.90"/>
    </edge>
    <edge id=":M_2" function="internal">
        <lane id=":M_2_0" index="0" disallow="pedestrian rail_fast" speed="13.90" length="6.15" shape="-1.60,7.90 -1.01,3.74 0.00,2.07"/>
    </edge>
    <edge id=":M_12" function="internal">
        <lane id=":M_12_0" index="0" disallow="pedestrian rail_fast" speed="13.90" length="4.23" shape="-3.90,2.74 -5.14,1.99 -7.90,1.60"/>
    </edge>
    <edge id=":M_13" function="internal">
        <lane id=":M_13_0" index="0" disallow="pedestrian rail_fast" speed="13.90" length="9.17" shape="0.00,2.07 0.77,0.78 3.74,-1.01 7.90,-1.60"/>
    </edge>
    <edge id=":M_3" function="internal">
        <lane id=":M_3_0" index="0" disallow="pedestrian rail_fast" speed="13.90" length="5.93" shape="7.90,1.60 5.14,1.99 3.17,3.17 2.74,3.90"/>
    </edge>
    <edge id=":M_4" function="internal">
        <lane id=":M_4_0" index="0" disallow="pedestrian rail_fast" speed="13.90" length="15.80" shape="7.90,1.60 -7.90,1.60"/>
    </edge>
    <edge id=":M_5" function="internal">
        <lane id=":M_5_0" index="0" disallow="pedestrian rail_fast" speed="13.90" length="6.15" shape="7.90,1.60 3.74,1.01 2.07,0.00"/>
    </edge>
    <edge id=":M_14" function="internal">
        <lane id=":M_14_0" index="0" disallow="pedestrian rail_fast" speed="13.90" length="4.23" shape="2.74,3.90 1.99,5.14 1.60,7.90"/>
    </edge>
    <edge id=":M_15" function="internal">
        <lane id=":M_15_0" index="0" disallow="pedestrian rail_fast" speed="13.90" length="9.17" shape="2.07,0.00 0.78,-0.77 -1.01,-3.74 -1.60,-7.90"/>
    </edge>
    <edge id=":M_6" function="internal">
        <lane id=":M_6_0" index="0" disallow="pedestrian rail_fast" speed="13.90" length="5.93" shape="1.60,-7.90 1.99,-5.14 3.17,-3.17 3.90,-2.74"/>
    </edge>
    <edge id=":M_7" function="internal">
        <lane id=":M_7_0" index="0" disallow="pedestrian rail_fast" speed="13.90" length="15.80" shape="1.60,-7.90 1.60,7.90"/>
    </edge>
    <edge id=":M_8" function="internal">
        <lane id=":M_8_0" index="0" disallow="pedestrian rail_fast" speed="13.90" length="6.15" shape="1.60,-7.90 1.01,-3.74 0.00,-2.07"/>
    </edge>
    <edge id=":M_16" function="internal">
        <lane id=":M_16_0" index="0" disallow="pedestrian rail_fast" speed="13.90" length="4.23" shape="3.90,-2.74 5.14,-1.99 7.90,-1.60"/>
    </edge>
    <edge id=":M_17" function="internal">
        <lane id=":M_17_0" index="0" disallow="pedestrian rail_fast" speed="13.90" length="9.17" shape="0.00,-2.07 -0.77,-0.78 -3.74,1.01 -7.90,1.60"/>
    </edge>
    <edge id=":M_9" function="internal">
        <lane id=":M_9_0" index="0" disallow="pedestrian rail_fast" speed="13.90" length="5.93" shape="-7.90,-1.60 -5.14,-1.99 -3.17,-3.17 -2.74,-3.90"/>
    </edge>
    <edge id=":M_10" function="internal">
        <lane id=":M_10_0" index="0" disallow="pedestrian rail_fast" speed="13.90" length="15.80" shape="-7.90,-1.60 7.90,-1.60"/>
    </edge>
    <edge id=":M_11" function="internal">
        <lane id=":M_11_0" index="0" disallow="pedestrian rail_fast" speed="13.90" length="6.15" shape="-7.90,-1.60 -3.74,-1.01 -2.07,0.00"/>
    </edge>
    <edge id=":M_18" function="internal">
        <lane id=":M_18_0" index="0" disallow="pedestrian rail_fast" speed="13.90" length="4.23" shape="-2.74,-3.90 -1.99,-5.14 -1.60,-7.90"/>
    </edge>
    <edge id=":M_19" function="internal">
        <lane id=":M_19_0" index="0" disallow="pedestrian rail_fast" speed="13.90" length="9.17" shape="-2.07,0.00 -0.78,0.77 1.01,3.74 1.60,7.90"/>
    </edge>
    <edge id=":M_c0" function="crossing" crossingEdges="MN NM">
        <lane id=":M_c0_0" index="0" allow="pedestrian" speed="1.00" length="6.40" width="4.00" shape="3.20,5.90 -3.20,5.90"/>
    </edge>
    <edge id=":M_c1" function="crossing" crossingEdges="ME EM">
        <lane id=":M_c1_0" index="0" allow="pedestrian" speed="1.00" length="6.40" width="4.00" shape="5.90,-3.20 5.90,3.20"/>
    </edge>
    <edge id=":M_c2" function="crossing" crossingEdges="MS SM">
        <lane id=":M_c2_0" index="0" allow="pedestrian" speed="1.00" length="6.40" width="4.00" shape="-3.20,-5.90 3.20,-5.90"/>
    </edge>
    <edge id=":M_c3" function="crossing" crossingEdges="MW WM">
        <lane id=":M_c3_0" index="0" allow="pedestrian" speed="1.00" length="6.40" width="4.00" shape="-5.90,3.20 -5.90,-3.20"/>
    </edge>
    <edge id=":M_w0" function="walkingarea">
        <lane id=":M_w0_0" index="0" allow="pedestrian" speed="1.00" length="3.83" width="4.00" shape="-3.90,3.20 -7.90,3.20 -7.90,6.40 -6.40,7.90 -3.20,7.90 -3.20,3.90"/>
    </edge>
    <edge id=":M_w1" function="walkingarea">
        <lane id=":M_w1_0" index="0" allow="pedestrian" speed="1.00" length="3.83" width="4.00" shape="3.20,3.90 3.20,7.90 6.40,7.90 7.90,6.40 7.90,3.20 3.90,3.20"/>
    </edge>
    <edge id=":M_w2" function="walkingarea">
        <lane id=":M_w2_0" index="0" allow="pedestrian" speed="1.00" length="3.83" width="4.00" shape="3.90,-3.20 7.90,-3.20 7.90,-6.40 6.40,-7.90 3.20,-7.90 3.20,-3.90"/>
    </edge>
    <edge id=":M_w3" function="walkingarea">
        <lane id=":M_w3_0" index="0" allow="pedestrian" speed="1.00" length="3.83" width="4.00" shape="-3.20,-3.90 -3.20,-7.90 -6.40,-7.90 -7.90,-6.40 -7.90,-3.20 -3.90,-3.20"/>
    </edge>
    <edge id=":N_w0" function="walkingarea">
        <lane id=":N_w0_0" index="0" allow="pedestrian" speed="1.00" length="9.60" width="3.20" shape="-3.20,100.00 -6.40,100.00 6.40,100.00 3.20,100.00"/>
    </edge>
    <edge id=":S_w0" function="walkingarea">
        <lane id=":S_w0_0" index="0" allow="pedestrian" speed="1.00" length="9.60" width="3.20" shape="3.20,-100.00 6.40,-100.00 -6.40,-100.00 -3.20,-100.00"/>
    </edge>
    <edge id=":W_w0" function="walkingarea">
        <lane id=":W_w0_0" index="0" allow="pedestrian" speed="1.00" length="9.60" width="3.20" shape="-100.00,-3.20 -100.00,-6.40 -100.00,6.40 -100.00,3.20"/>
    </edge>

    <edge id="EM" from="E" to="M" priority="-1">
        <lane id="EM_0" index="0" allow="pedestrian" speed="13.90" length="92.10" shape="100.00,4.80 7.90,4.80"/>
        <lane id="EM_1" index="1" disallow="pedestrian rail_fast" speed="13.90" length="92.10" shape="100.00,1.60 7.90,1.60"/>
    </edge>
    <edge id="ME" from="M" to="E" priority="-1">
        <lane id="ME_0" index="0" allow="pedestrian" speed="13.90" length="92.10" shape="7.90,-4.80 100.00,-4.80"/>
        <lane id="ME_1" index="1" disallow="pedestrian rail_fast" speed="13.90" length="92.10" shape="7.90,-1.60 100.00,-1.60"/>
    </edge>
    <edge id="MN" from="M" to="N" priority="-1">
        <lane id="MN_0" index="0" allow="pedestrian" speed="13.90" length="92.10" shape="4.80,7.90 4.80,100.00"/>
        <lane id="MN_1" index="1" disallow="pedestrian rail_fast" speed="13.90" length="92.10" shape="1.60,7.90 1.60,100.00"/>
    </edge>
    <edge id="MS" from="M" to="S" priority="-1">
        <lane id="MS_0" index="0" allow="pedestrian" speed="13.90" length="92.10" shape="-4.80,-7.90 -4.80,-100.00"/>
        <lane id="MS_1" index="1" disallow="pedestrian rail_fast" speed="13.90" length="92.10" shape="-1.60,-7.90 -1.60,-100.00"/>
    </edge>
    <edge id="MW" from="M" to="W" priority="-1">
        <lane id="MW_0" index="0" allow="pedestrian" speed="13.90" length="92.10" shape="-7.90,4.80 -100.00,4.80"/>
        <lane id="MW_1" index="1" disallow="pedestrian rail_fast" speed="13.90" length="92.10" shape="-7.90,1.60 -100.00,1.60"/>
    </edge>
    <edge id="NM" from="N" to="M" priority="-1">
        <lane id="NM_0" index="0" allow="pedestrian" speed="13.90" length="92.10" shape="-4.80,100.00 -4.80,7.90"/>
        <lane id="NM_1" index="1" disallow="pedestrian rail_fast" speed="13.90" length="92.10" shape="-1.60,100.00 -1.60,7.90"/>
    </edge>
    <edge id="SM" from="S" to="M" priority="-1">
        <lane id="SM_0" index="0" allow="pedestrian" speed="13.90" length="92.10" shape="4.80,-100.00 4.80,-7.90"/>
        <lane id="SM_1" index="1" disallow="pedestrian rail_fast" speed="13.90" length="92.10" shape="1.60,-100.00 1.60,-7.90"/>
    </edge>
    <edge id="WM" from="W" to="M" priority="-1">
        <lane id="WM_0" index="0" allow="pedestrian" speed="13.90" length="92.10" shape="-100.00,-4.80 -7.90,-4.80"/>
        <lane id="WM_1" index="1" disallow="pedestrian rail_fast" speed="13.90" length="92.10" shape="-100.00,-1.60 -7.90,-1.60"/>
    </edge>

    <tlLogic id="0" type="static" programID="0" offset="0">
        <phase duration="37" state="rrrgGgrrrgGgGrGr"/>
        <phase duration="5"  state="rrrgGgrrrgGgrrrr"/>
        <phase duration="3"  state="rrryyyrrryyyrrrr"/>
        <phase duration="37" state="gGgrrrgGgrrrrGrG"/>
        <phase duration="5"  state="gGgrrrgGgrrrrrrr"/>
        <phase duration="3"  state="yyyrrryyyrrrrrrr"/>
    </tlLogic>

    <junction id="E" type="dead_end" x="100.00" y="0.00" incLanes="ME_0 ME_1" intLanes="" shape="100.00,0.00 100.00,-6.40 100.00,0.00"/>
    <junction id="M" type="traffic_light" x="0.00" y="0.00" incLanes="NM_0 NM_1 EM_0 EM_1 SM_0 SM_1 WM_0 WM_1 :M_w1_0 :M_w2_0 :M_w3_0 :M_w0_0" intLanes=":M_12_0 :M_1_0 :M_13_0 :M_14_0 :M_4_0 :M_15_0 :M_16_0 :M_7_0 :M_17_0 :M_18_0 :M_10_0 :M_19_0 :M_c0_0 :M_c1_0 :M_c2_0 :M_c3_0" shape="-6.40,7.90 6.40,7.90 7.90,6.40 7.90,-6.40 6.40,-7.90 -6.40,-7.90 -7.90,-6.40 -7.90,6.40">
        <request index="0"  response="1001000000000000" foes="1001000100010000" cont="1"/>
        <request index="1"  response="0101101000100000" foes="0101111100110000" cont="0"/>
        <request index="2"  response="0011100011100000" foes="0011110011110000" cont="1"/>
        <request index="3"  response="0011000010000000" foes="0011100010000000" cont="1"/>
        <request index="4"  response="1010000110000111" foes="1010100110000111" cont="0"/>
        <request index="5"  response="0110011110000110" foes="0110011110000110" cont="1"/>
        <request index="6"  response="0110000000000000" foes="0110010000000100" cont="1"/>
        <request index="7"  response="0101100000101000" foes="0101110000111100" cont="0"/>
        <request index="8"  response="1100100000100011" foes="1100110000110011" cont="1"/>
        <request index="9"  response="1100000000000010" foes="1100000000100010" cont="1"/>
        <request index="10" response="1010000111000110" foes="1010000111100110" cont="0"/>
        <request index="11" response="1001000110011110" foes="1001000110011110" cont="1"/>
        <request index="12" response="0000000000000000" foes="0000100010001111" cont="0"/>
        <request index="13" response="0000000000000000" foes="0000010001111100" cont="0"/>
        <request index="14" response="0000000000000000" foes="0000001111100010" cont="0"/>
        <request index="15" response="0000000000000000" foes="0000111100010001" cont="0"/>
    </junction>
    <junction id="N" type="dead_end" x="0.00" y="100.00" incLanes="MN_0 MN_1" intLanes="" shape="0.00,100.00 6.40,100.00 0.00,100.00"/>
    <junction id="S" type="dead_end" x="0.00" y="-100.00" incLanes="MS_0 MS_1" intLanes="" shape="0.00,-100.00 -6.40,-100.00 0.00,-100.00"/>
    <junction id="W" type="dead_end" x="-100.00" y="0.00" incLanes="MW_0 MW_1" intLanes="" shape="-100.00,0.00 -100.00,6.40 -100.00,0.00"/>

    <junction id=":M_12_0" type="internal" x="-3.90" y="2.74" incLanes=":M_0_0" intLanes=":M_4_0 :M_8_0 :M_c0_0 :M_c3_0"/>
    <junction id=":M_13_0" type="internal" x="0.00" y="2.07" incLanes=":M_2_0 SM_1" intLanes=":M_4_0 :M_5_0 :M_6_0 :M_7_0 :M_10_0 :M_11_0 :M_c0_0 :M_c1_0"/>
    <junction id=":M_14_0" type="internal" x="2.74" y="3.90" incLanes=":M_3_0" intLanes=":M_7_0 :M_11_0 :M_c0_0 :M_c1_0"/>
    <junction id=":M_15_0" type="internal" x="2.07" y="0.00" incLanes=":M_5_0 WM_1" intLanes=":M_1_0 :M_2_0 :M_7_0 :M_8_0 :M_9_0 :M_10_0 :M_c1_0 :M_c2_0"/>
    <junction id=":M_16_0" type="internal" x="3.90" y="-2.74" incLanes=":M_6_0" intLanes=":M_2_0 :M_10_0 :M_c1_0 :M_c2_0"/>
    <junction id=":M_17_0" type="internal" x="0.00" y="-2.07" incLanes=":M_8_0 NM_1" intLanes=":M_0_0 :M_1_0 :M_4_0 :M_5_0 :M_10_0 :M_11_0 :M_c2_0 :M_c3_0"/>
    <junction id=":M_18_0" type="internal" x="-2.74" y="-3.90" incLanes=":M_9_0" intLanes=":M_1_0 :M_5_0 :M_c2_0 :M_c3_0"/>
    <junction id=":M_19_0" type="internal" x="-2.07" y="0.00" incLanes=":M_11_0 EM_1" intLanes=":M_1_0 :M_2_0 :M_3_0 :M_4_0 :M_7_0 :M_8_0 :M_c0_0 :M_c3_0"/>

    <connection from="EM" to="MN" fromLane="1" toLane="1" via=":M_3_0" tl="0" linkIndex="3" dir="r" state="o"/>
    <connection from="EM" to="MW" fromLane="1" toLane="1" via=":M_4_0" tl="0" linkIndex="4" dir="s" state="o"/>
    <connection from="EM" to="MS" fromLane="1" toLane="1" via=":M_5_0" tl="0" linkIndex="5" dir="l" state="o"/>
    <connection from="NM" to="MW" fromLane="1" toLane="1" via=":M_0_0" tl="0" linkIndex="0" dir="r" state="o"/>
    <connection from="NM" to="MS" fromLane="1" toLane="1" via=":M_1_0" tl="0" linkIndex="1" dir="s" state="o"/>
    <connection from="NM" to="ME" fromLane="1" toLane="1" via=":M_2_0" tl="0" linkIndex="2" dir="l" state="o"/>
    <connection from="SM" to="ME" fromLane="1" toLane="1" via=":M_6_0" tl="0" linkIndex="6" dir="r" state="o"/>
    <connection from="SM" to="MN" fromLane="1" toLane="1" via=":M_7_0" tl="0" linkIndex="7" dir="s" state="o"/>
    <connection from="SM" to="MW" fromLane="1" toLane="1" via=":M_8_0" tl="0" linkIndex="8" dir="l" state="o"/>
    <connection from="WM" to="MS" fromLane="1" toLane="1" via=":M_9_0" tl="0" linkIndex="9" dir="r" state="o"/>
    <connection from="WM" to="ME" fromLane="1" toLane="1" via=":M_10_0" tl="0" linkIndex="10" dir="s" state="o"/>
    <connection from="WM" to="MN" fromLane="1" toLane="1" via=":M_11_0" tl="0" linkIndex="11" dir="l" state="o"/>

    <connection from=":M_0" to="MW" fromLane="0" toLane="1" via=":M_12_0" dir="r" state="m"/>
    <connection from=":M_12" to="MW" fromLane="0" toLane="1" dir="r" state="M"/>
    <connection from=":M_1" to="MS" fromLane="0" toLane="1" dir="s" state="M"/>
    <connection from=":M_2" to="ME" fromLane="0" toLane="1" via=":M_13_0" dir="l" state="m"/>
    <connection from=":M_13" to="ME" fromLane="0" toLane="1" dir="l" state="M"/>
    <connection from=":M_3" to="MN" fromLane="0" toLane="1" via=":M_14_0" dir="r" state="m"/>
    <connection from=":M_14" to="MN" fromLane="0" toLane="1" dir="r" state="M"/>
    <connection from=":M_4" to="MW" fromLane="0" toLane="1" dir="s" state="M"/>
    <connection from=":M_5" to="MS" fromLane="0" toLane="1" via=":M_15_0" dir="l" state="m"/>
    <connection from=":M_15" to="MS" fromLane="0" toLane="1" dir="l" state="M"/>
    <connection from=":M_6" to="ME" fromLane="0" toLane="1" via=":M_16_0" dir="r" state="m"/>
    <connection from=":M_16" to="ME" fromLane="0" toLane="1" dir="r" state="M"/>
    <connection from=":M_7" to="MN" fromLane="0" toLane="1" dir="s" state="M"/>
    <connection from=":M_8" to="MW" fromLane="0" toLane="1" via=":M_17_0" dir="l" state="m"/>
    <connection from=":M_17" to="MW" fromLane="0" toLane="1" dir="l" state="M"/>
    <connection from=":M_9" to="MS" fromLane="0" toLane="1" via=":M_18_0" dir="r" state="m"/>
    <connection from=":M_18" to="MS" fromLane="0" toLane="1" dir="r" state="M"/>
    <connection from=":M_10" to="ME" fromLane="0" toLane="1" dir="s" state="M"/>
    <connection from=":M_11" to="MN" fromLane="0" toLane="1" via=":M_19_0" dir="l" state="m"/>
    <connection from=":M_19" to="MN" fromLane="0" toLane="1" dir="l" state="M"/>

    <connection from=":E_w0" to="EM" fromLane="0" toLane="0" dir="s" state="M"/>
    <connection from="ME" to=":E_w0" fromLane="0" toLane="0" dir="s" state="M"/>
    <connection from=":M_c0" to=":M_w0" fromLane="0" toLane="0" dir="s" state="M"/>
    <connection from=":M_c1" to=":M_w1" fromLane="0" toLane="0" dir="s" state="M"/>
    <connection from=":M_c2" to=":M_w2" fromLane="0" toLane="0" dir="s" state="M"/>
    <connection from=":M_c3" to=":M_w3" fromLane="0" toLane="0" dir="s" state="M"/>
    <connection from=":M_w0" to=":M_c3" fromLane="0" toLane="0" tl="0" linkIndex="15" dir="s" state="M"/>
    <connection from=":M_w0" to="MW" fromLane="0" toLane="0" dir="s" state="M"/>
    <connection from="NM" to=":M_w0" fromLane="0" toLane="0" dir="s" state="M"/>
    <connection from=":M_w1" to=":M_c0" fromLane="0" toLane="0" tl="0" linkIndex="12" dir="s" state="M"/>
    <connection from=":M_w1" to="MN" fromLane="0" toLane="0" dir="s" state="M"/>
    <connection from="EM" to=":M_w1" fromLane="0" toLane="0" dir="s" state="M"/>
    <connection from=":M_w2" to=":M_c1" fromLane="0" toLane="0" tl="0" linkIndex="13" dir="s" state="M"/>
    <connection from=":M_w2" to="ME" fromLane="0" toLane="0" dir="s" state="M"/>
    <connection from="SM" to=":M_w2" fromLane="0" toLane="0" dir="s" state="M"/>
    <connection from=":M_w3" to=":M_c2" fromLane="0" toLane="0" tl="0" linkIndex="14" dir="s" state="M"/>
    <connection from=":M_w3" to="MS" fromLane="0" toLane="0" dir="s" state="M"/>
    <connection from="WM" to=":M_w3" fromLane="0" toLane="0" dir="s" state="M"/>
    <connection from=":N_w0" to="NM" fromLane="0" toLane="0" dir="s" state="M"/>
    <connection from="MN" to=":N_w0" fromLane="0" toLane="0" dir="s" state="M"/>
    <connection from=":S_w0" to="SM" fromLane="0" toLane="0" dir="s" state="M"/>
    <connection from="MS" to=":S_w0" fromLane="0" toLane="0" dir="s" state="M"/>
    <connection from=":W_w0" to="WM" fromLane="0" toLane="0" dir="s" state="M"/>
    <connection from="MW" to=":W_w0" fromLane="0" toLane="0" dir="s" state="M"/>
</net>
