<?xml version="1.0" encoding="UTF-8"?>

<!-- generated on 06/22/20 18:17:11 by Eclipse SUMO netedit Version 1.3.1
<configuration xmlns:xsi="http://www.w3.org/2001/XMLSchema-instance" xsi:noNamespaceSchemaLocation="http://sumo.dlr.de/xsd/netconvertConfiguration.xsd">

    <output>
        <output-file value="C:\Users\Gman\Desktop\1.net.xml"/>
    </output>

    <processing>
        <offset.disable-normalization value="true"/>
    </processing>

    <junctions>
        <no-turnarounds value="true"/>
    </junctions>

</configuration>
-->

<net version="1.3" junctionCornerDetail="5" limitTurnSpeed="5.50" xmlns:xsi="http://www.w3.org/2001/XMLSchema-instance" xsi:noNamespaceSchemaLocation="http://sumo.dlr.de/xsd/net_file.xsd">

    <location netOffset="0.00,0.00" convBoundary="0.00,-20.00,100.00,0.00" origBoundary="10000000000.00,10000000000.00,-10000000000.00,-10000000000.00" projParameter="!"/>

    <edge id=":M_0" function="internal">
        <lane id=":M_0_0" index="0" speed="13.89" length="11.63" shape="41.20,-5.24 44.16,-3.89 46.52,-2.72 48.95,-1.91 52.12,-1.60"/>
    </edge>
    <edge id=":M_1" function="internal">
        <lane id=":M_1_0" index="0" speed="13.89" length="11.62" shape="40.50,-1.60 52.12,-1.60"/>
    </edge>

    <edge id="ME" from="M" to="E" priority="-1">
        <lane id="ME_0" index="0" speed="13.89" length="47.88" shape="52.12,-1.60 100.00,-1.60"/>
    </edge>
    <edge id="SM" from="S" to="M" priority="-1">
        <lane id="SM_0" index="0" speed="13.89" length="43.74" shape="0.59,-21.49 41.20,-5.24"/>
    </edge>
    <edge id="WM" from="W" to="M" priority="-1">
        <lane id="WM_0" index="0" speed="13.89" length="40.50" shape="0.00,-1.60 40.50,-1.60"/>
    </edge>

    <junction id="E" type="dead_end" x="100.00" y="0.00" incLanes="ME_0" intLanes="" shape="100.00,-3.20 100.00,0.00"/>
    <junction id="M" type="priority" x="50.00" y="0.00" incLanes="SM_0 WM_0" intLanes=":M_0_0 :M_1_0" shape="52.12,0.00 52.12,-3.20 49.81,-3.32 48.14,-3.66 46.81,-4.20 45.51,-4.91 43.94,-5.76 41.80,-6.73 40.61,-3.76 40.50,-3.20 40.50,0.00">
        <request index="0" response="00" foes="10" cont="0"/>
        <request index="1" response="01" foes="01" cont="0"/>
    </junction>
    <junction id="S" type="dead_end" x="0.00" y="-20.00" incLanes="" intLanes="" shape="0.00,-20.00 1.19,-22.97"/>
    <junction id="W" type="dead_end" x="0.00" y="0.00" incLanes="" intLanes="" shape="0.00,0.00 0.00,-3.20"/>

    <connection from="SM" to="ME" fromLane="0" toLane="0" via=":M_0_0" dir="s" state="M"/>
    <connection from="WM" to="ME" fromLane="0" toLane="0" via=":M_1_0" dir="s" state="m"/>

    <connection from=":M_0" to="ME" fromLane="0" toLane="0" dir="s" state="M"/>
    <connection from=":M_1" to="ME" fromLane="0" toLane="0" dir="s" state="M"/>

</net>
