<?xml version="1.0" encoding="UTF-8"?>

<!-- generated on 06/19/20 15:17:39 by Eclipse SUMO netedit Version 1.3.1
<configuration xmlns:xsi="http://www.w3.org/2001/XMLSchema-instance" xsi:noNamespaceSchemaLocation="http://sumo.dlr.de/xsd/netconvertConfiguration.xsd">

    <input>
        <sumo-net-file value="E:\github_Repositories\ivis-sumo-scenarios\accident_V2X\30_Scenarios\V-V\v-v21\21.net.xml"/>
    </input>

    <output>
        <output-file value="E:\github_Repositories\ivis-sumo-scenarios\accident_V2X\30_Scenarios\V-V\v-v21\21.net.xml"/>
    </output>

    <processing>
        <geometry.max-grade.fix value="false"/>
        <offset.disable-normalization value="true"/>
        <opposites.guess.fix-lengths value="true"/>
        <lefthand value="false"/>
    </processing>

    <junctions>
        <no-internal-links value="true"/>
        <no-turnarounds value="true"/>
        <junctions.corner-detail value="5"/>
        <junctions.limit-turn-speed value="5.5"/>
        <rectangular-lane-cut value="false"/>
    </junctions>

    <pedestrian>
        <walkingareas value="false"/>
    </pedestrian>

</configuration>
-->

<net version="1.3" junctionCornerDetail="5" limitTurnSpeed="5.50" xmlns:xsi="http://www.w3.org/2001/XMLSchema-instance" xsi:noNamespaceSchemaLocation="http://sumo.dlr.de/xsd/net_file.xsd">

    <location netOffset="0.00,0.00" convBoundary="0.00,0.00,100.00,0.00" origBoundary="-10000000000.00,-10000000000.00,10000000000.00,10000000000.00" projParameter="!"/>

    <edge id="WE" from="W" to="E" priority="-1" length="100.00">
        <lane id="WE_0" index="0" speed="30.00" length="100.00" shape="0.00,-4.80 100.00,-4.80"/>
        <lane id="WE_1" index="1" speed="30.00" length="100.00" shape="0.00,-1.60 100.00,-1.60"/>
    </edge>

    <junction id="E" type="dead_end" x="100.00" y="0.00" incLanes="WE_0 WE_1" intLanes="" shape="100.00,-6.40 100.00,0.00"/>
    <junction id="W" type="dead_end" x="0.00" y="0.00" incLanes="" intLanes="" shape="0.00,0.00 0.00,-6.40"/>

</net>
