<?xml version="1.0" encoding="UTF-8"?>


<routes >
	<vType id="bicycle" vClass="bicycle" length="3" color="255,255,0" carFollowModel="IDM"  laneChangeModel="SL2015" minGap="0" minGapLat="0"/>
	<vType id="passenger" vClass="passenger" length="6" color="255,255,255" carFollowModel="IDM"  laneChangeModel="SL2015" minGap="0" minGapLat="0"/>
	
	
	<vehicle id="0" type="bicycle" depart="0" departPos="0" departSpeed="3" departLane="0">
		<route edges="WM ME"/>
	</vehicle>
	
	
	<vehicle id="1" type="passenger" depart="27.6" departPos="0" departSpeed="10" departLane="1">
		<route edges="WM ME"/>
	</vehicle>
</routes>
