<?xml version='1.0' encoding='utf-8'?>
<routes>
		<vType carFollowModel="IDM" color="255,255,0" id="moped" laneChangeModel="LC2013" length="6" minGap="0" minGapLat="0" vClass="moped" />
		<vehicle depart="0" departPos="0" departSpeed="5" id="0" type="moped">
			<route edges="WM MS" />
		</vehicle>

		<vType carFollowModel="IDM" color="0,255,255" id="trailer" laneChangeModel="LC2013" length="6" minGap="0" minGapLat="0" vClass="trailer" />
		<vehicle depart="10.0" departPos="0" departSpeed="10" id="1" type="trailer">
			<route edges="NM MS" />
		</vehicle>

	</routes>