<?xml version="1.0" encoding="UTF-8"?>

<!-- generated on 06/15/20 15:46:49 by Eclipse SUMO netedit Version 1.3.1
<configuration xmlns:xsi="http://www.w3.org/2001/XMLSchema-instance" xsi:noNamespaceSchemaLocation="http://sumo.dlr.de/xsd/netconvertConfiguration.xsd">

    <input>
        <sumo-net-file value="E:\github_Repositories\ivis-sumo-scenarios\accident_V2X\30_Scenarios\TRoad.net.xml"/>
    </input>

    <output>
        <output-file value="E:\github_Repositories\ivis-sumo-scenarios\accident_V2X\30_Scenarios\TRoad.net.xml"/>
    </output>

    <processing>
        <geometry.max-grade.fix value="false"/>
        <offset.disable-normalization value="true"/>
        <opposites.guess.fix-lengths value="true"/>
        <lefthand value="false"/>
    </processing>

    <junctions>
        <no-internal-links value="false"/>
        <no-turnarounds value="true"/>
        <junctions.corner-detail value="0"/>
        <junctions.limit-turn-speed value="-1"/>
        <rectangular-lane-cut value="false"/>
    </junctions>

    <pedestrian>
        <walkingareas value="false"/>
    </pedestrian>

</configuration>
-->

<net version="1.3" xmlns:xsi="http://www.w3.org/2001/XMLSchema-instance" xsi:noNamespaceSchemaLocation="http://sumo.dlr.de/xsd/net_file.xsd">

    <location netOffset="500.00,500.00" convBoundary="-100.00,-50.00,0.00,50.00" origBoundary="-500.00,-500.00,500.00,500.00" projParameter="!"/>

    <edge id=":M_0" function="internal">
        <lane id=":M_0_0" index="0" disallow="pedestrian rail_fast" speed="13.90" length="5.93" shape="-4.80,11.10 -5.19,8.34 -6.37,6.38 -7.10,5.94"/>
    </edge>
    <edge id=":M_1" function="internal">
        <lane id=":M_1_0" index="0" disallow="pedestrian rail_fast" speed="13.90" length="22.20" shape="-4.80,11.10 -4.80,-11.10"/>
    </edge>
    <edge id=":M_2" function="internal">
        <lane id=":M_2_0" index="0" disallow="pedestrian rail_fast" speed="13.90" length="6.15" shape="-1.60,11.10 -2.19,6.94 -3.20,5.27"/>
    </edge>
    <edge id=":M_3" function="internal">
        <lane id=":M_3_0" index="0" disallow="pedestrian rail_fast" speed="13.90" length="22.20" shape="-1.60,11.10 -1.60,-11.10"/>
    </edge>
    <edge id=":M_4" function="internal">
        <lane id=":M_4_0" index="0" disallow="pedestrian rail_fast" speed="13.90" length="2.34" shape="-1.60,11.10 -0.80,9.90 0.00,9.50"/>
    </edge>
    <edge id=":M_14" function="internal">
        <lane id=":M_14_0" index="0" disallow="pedestrian rail_fast" speed="13.90" length="4.23" shape="-7.10,5.94 -8.34,5.19 -11.10,4.80"/>
    </edge>
    <edge id=":M_15" function="internal">
        <lane id=":M_15_0" index="0" disallow="pedestrian rail_fast" speed="13.90" length="9.17" shape="-3.20,5.27 -3.97,3.98 -6.94,2.19 -11.10,1.60"/>
    </edge>
    <edge id=":M_16" function="internal">
        <lane id=":M_16_0" index="0" disallow="pedestrian rail_fast" speed="13.90" length="2.34" shape="0.00,9.50 0.80,9.90 1.60,11.10"/>
    </edge>
    <edge id=":M_5" function="internal">
        <lane id=":M_5_0" index="0" disallow="pedestrian rail_fast" speed="13.90" length="22.20" shape="4.80,-11.10 4.80,11.10"/>
    </edge>
    <edge id=":M_6" function="internal">
        <lane id=":M_6_0" index="0" disallow="pedestrian rail_fast" speed="13.90" length="13.78" shape="4.80,-11.10 3.81,-4.14 0.83,0.82 0.00,1.32"/>
    </edge>
    <edge id=":M_7" function="internal">
        <lane id=":M_7_0" index="0" disallow="pedestrian rail_fast" speed="13.90" length="22.20" shape="1.60,-11.10 1.60,11.10"/>
    </edge>
    <edge id=":M_8" function="internal">
        <lane id=":M_8_0" index="0" disallow="pedestrian rail_fast" speed="13.90" length="7.18" shape="1.60,-11.10 0.81,-5.54 0.00,-4.20"/>
    </edge>
    <edge id=":M_9" function="internal">
        <lane id=":M_9_0" index="0" disallow="pedestrian rail_fast" speed="13.90" length="2.34" shape="1.60,-11.10 0.80,-9.90 0.00,-9.50"/>
    </edge>
    <edge id=":M_17" function="internal">
        <lane id=":M_17_0" index="0" disallow="pedestrian rail_fast" speed="13.90" length="11.86" shape="0.00,1.32 -4.14,3.81 -11.10,4.80"/>
    </edge>
    <edge id=":M_18" function="internal">
        <lane id=":M_18_0" index="0" disallow="pedestrian rail_fast" speed="13.90" length="13.30" shape="0.00,-4.20 -1.57,-1.58 -5.54,0.81 -11.10,1.60"/>
    </edge>
    <edge id=":M_19" function="internal">
        <lane id=":M_19_0" index="0" disallow="pedestrian rail_fast" speed="13.90" length="2.34" shape="0.00,-9.50 -0.80,-9.90 -1.60,-11.10"/>
    </edge>
    <edge id=":M_10" function="internal">
        <lane id=":M_10_0" index="0" disallow="pedestrian rail_fast" speed="13.90" length="10.16" shape="-11.10,-4.80 -8.34,-5.19 -6.37,-6.38 -5.19,-8.34 -4.80,-11.10"/>
    </edge>
    <edge id=":M_11" function="internal">
        <lane id=":M_11_0" index="0" disallow="pedestrian rail_fast" speed="13.90" length="25.64" shape="-11.10,-4.80 -4.14,-3.81 0.82,-0.82 3.81,4.14 4.80,11.10"/>
    </edge>
    <edge id=":M_12" function="internal">
        <lane id=":M_12_0" index="0" disallow="pedestrian rail_fast" speed="13.90" length="20.48" shape="-11.10,-1.60 -5.54,-0.81 -1.58,1.58 0.81,5.54 1.60,11.10"/>
    </edge>
    <edge id=":M_13" function="internal">
        <lane id=":M_13_0" index="0" disallow="pedestrian rail_fast" speed="13.90" length="4.67" shape="-11.10,-1.60 -9.90,-0.80 -9.50,0.00 -9.90,0.80 -11.10,1.60"/>
    </edge>
    <edge id=":M_c0" function="crossing" crossingEdges="MN NM">
        <lane id=":M_c0_0" index="0" allow="pedestrian" speed="1.00" length="12.80" width="4.00" shape="6.40,9.10 -6.40,9.10"/>
    </edge>
    <edge id=":M_c1" function="crossing" crossingEdges="MS SM">
        <lane id=":M_c1_0" index="0" allow="pedestrian" speed="1.00" length="12.80" width="4.00" shape="-6.40,-9.10 6.40,-9.10"/>
    </edge>
    <edge id=":M_c2" function="crossing" crossingEdges="MW WM">
        <lane id=":M_c2_0" index="0" allow="pedestrian" speed="1.00" length="12.80" width="4.00" shape="-9.10,6.40 -9.10,-6.40"/>
    </edge>
    <edge id=":M_w0" function="walkingarea">
        <lane id=":M_w0_0" index="0" allow="pedestrian" speed="1.00" length="3.83" width="4.00" shape="-7.10,6.40 -11.10,6.40 -11.10,9.60 -9.60,11.10 -6.40,11.10 -6.40,7.10"/>
    </edge>
    <edge id=":M_w1" function="walkingarea">
        <lane id=":M_w1_0" index="0" allow="pedestrian" speed="1.00" length="14.34" width="4.00" shape="6.40,7.10 6.40,11.10 9.60,11.10 9.60,-11.10 6.40,-11.10 6.40,-7.10"/>
    </edge>
    <edge id=":M_w2" function="walkingarea">
        <lane id=":M_w2_0" index="0" allow="pedestrian" speed="1.00" length="3.83" width="4.00" shape="-6.40,-7.10 -6.40,-11.10 -9.60,-11.10 -11.10,-9.60 -11.10,-6.40 -7.10,-6.40"/>
    </edge>
    <edge id=":N_w0" function="walkingarea">
        <lane id=":N_w0_0" index="0" allow="pedestrian" speed="1.00" length="16.00" width="3.20" shape="-6.40,50.00 -9.60,50.00 9.60,50.00 6.40,50.00"/>
    </edge>
    <edge id=":S_w0" function="walkingarea">
        <lane id=":S_w0_0" index="0" allow="pedestrian" speed="1.00" length="16.00" width="3.20" shape="6.40,-50.00 9.60,-50.00 -9.60,-50.00 -6.40,-50.00"/>
    </edge>
    <edge id=":W_w0" function="walkingarea">
        <lane id=":W_w0_0" index="0" allow="pedestrian" speed="1.00" length="16.00" width="3.20" shape="-100.00,-6.40 -100.00,-9.60 -100.00,9.60 -100.00,6.40"/>
    </edge>

    <edge id="MN" from="M" to="N" priority="-1">
        <lane id="MN_0" index="0" allow="pedestrian" speed="13.90" length="38.90" shape="8.00,11.10 8.00,50.00"/>
        <lane id="MN_1" index="1" disallow="pedestrian rail_fast" speed="13.90" length="38.90" shape="4.80,11.10 4.80,50.00"/>
        <lane id="MN_2" index="2" disallow="pedestrian rail_fast" speed="13.90" length="38.90" shape="1.60,11.10 1.60,50.00"/>
    </edge>
    <edge id="MS" from="M" to="S" priority="-1">
        <lane id="MS_0" index="0" allow="pedestrian" speed="13.90" length="38.90" shape="-8.00,-11.10 -8.00,-50.00"/>
        <lane id="MS_1" index="1" disallow="pedestrian rail_fast" speed="13.90" length="38.90" shape="-4.80,-11.10 -4.80,-50.00"/>
        <lane id="MS_2" index="2" disallow="pedestrian rail_fast" speed="13.90" length="38.90" shape="-1.60,-11.10 -1.60,-50.00"/>
    </edge>
    <edge id="MW" from="M" to="W" priority="-1">
        <lane id="MW_0" index="0" allow="pedestrian" speed="13.90" length="88.90" shape="-11.10,8.00 -100.00,8.00"/>
        <lane id="MW_1" index="1" disallow="pedestrian rail_fast" speed="13.90" length="88.90" shape="-11.10,4.80 -100.00,4.80"/>
        <lane id="MW_2" index="2" disallow="pedestrian rail_fast" speed="13.90" length="88.90" shape="-11.10,1.60 -100.00,1.60"/>
    </edge>
    <edge id="NM" from="N" to="M" priority="-1">
        <lane id="NM_0" index="0" allow="pedestrian" speed="13.90" length="38.90" shape="-8.00,50.00 -8.00,11.10"/>
        <lane id="NM_1" index="1" disallow="pedestrian rail_fast" speed="13.90" length="38.90" shape="-4.80,50.00 -4.80,11.10"/>
        <lane id="NM_2" index="2" disallow="pedestrian rail_fast" speed="13.90" length="38.90" shape="-1.60,50.00 -1.60,11.10"/>
    </edge>
    <edge id="SM" from="S" to="M" priority="-1">
        <lane id="SM_0" index="0" allow="pedestrian" speed="13.90" length="38.90" shape="8.00,-50.00 8.00,-11.10"/>
        <lane id="SM_1" index="1" disallow="pedestrian rail_fast" speed="13.90" length="38.90" shape="4.80,-50.00 4.80,-11.10"/>
        <lane id="SM_2" index="2" disallow="pedestrian rail_fast" speed="13.90" length="38.90" shape="1.60,-50.00 1.60,-11.10"/>
    </edge>
    <edge id="WM" from="W" to="M" priority="-1">
        <lane id="WM_0" index="0" allow="pedestrian" speed="13.90" length="88.90" shape="-100.00,-8.00 -11.10,-8.00"/>
        <lane id="WM_1" index="1" disallow="pedestrian rail_fast" speed="13.90" length="88.90" shape="-100.00,-4.80 -11.10,-4.80"/>
        <lane id="WM_2" index="2" disallow="pedestrian rail_fast" speed="13.90" length="88.90" shape="-100.00,-1.60 -11.10,-1.60"/>
    </edge>

    <junction id="M" type="priority" x="0.00" y="0.00" incLanes="NM_0 NM_1 NM_2 SM_0 SM_1 SM_2 WM_0 WM_1 WM_2 :M_w1_0 :M_w2_0 :M_w0_0" intLanes=":M_14_0 :M_1_0 :M_15_0 :M_3_0 :M_16_0 :M_5_0 :M_17_0 :M_7_0 :M_18_0 :M_19_0 :M_10_0 :M_11_0 :M_12_0 :M_13_0 :M_c0_0 :M_c1_0 :M_c2_0" shape="-9.60,11.10 9.60,11.10 9.60,-11.10 -9.60,-11.10 -11.10,-9.60 -11.10,9.60">
        <request index="0"  response="10100000000000000" foes="10110000101000000" cont="1"/>
        <request index="1"  response="01100000000000000" foes="01101111101000100" cont="0"/>
        <request index="2"  response="10100000000000010" foes="10110000101000010" cont="1"/>
        <request index="3"  response="01100000000000000" foes="01101111101000000" cont="0"/>
        <request index="4"  response="00101100010100000" foes="00101100010100000" cont="1"/>
        <request index="5"  response="01100000000000000" foes="01101100000010000" cont="0"/>
        <request index="6"  response="11000000010001111" foes="11011100010001111" cont="1"/>
        <request index="7"  response="01100000000000000" foes="01101100001010000" cont="0"/>
        <request index="8"  response="11000000000001111" foes="11011100000001111" cont="1"/>
        <request index="9"  response="01000000000001010" foes="01000000000001010" cont="1"/>
        <request index="10" response="11000000000001010" foes="11000000000001010" cont="0"/>
        <request index="11" response="10100000111101010" foes="10100000111111010" cont="0"/>
        <request index="12" response="10100000111101010" foes="10100000111111010" cont="0"/>
        <request index="13" response="10000000101000101" foes="10000000101000101" cont="0"/>
        <request index="14" response="00000000000000000" foes="00001100010111111" cont="0"/>
        <request index="15" response="00000000000000000" foes="00000011111101010" cont="0"/>
        <request index="16" response="00000000000000000" foes="00011110101000101" cont="0"/>
    </junction>
    <junction id="N" type="dead_end" x="0.00" y="50.00" incLanes="MN_0 MN_1 MN_2" intLanes="" shape="0.00,50.00 9.60,50.00 0.00,50.00"/>
    <junction id="S" type="dead_end" x="0.00" y="-50.00" incLanes="MS_0 MS_1 MS_2" intLanes="" shape="0.00,-50.00 -9.60,-50.00 0.00,-50.00"/>
    <junction id="W" type="dead_end" x="-100.00" y="0.00" incLanes="MW_0 MW_1 MW_2" intLanes="" shape="-100.00,0.00 -100.00,9.60 -100.00,0.00"/>

    <junction id=":M_14_0" type="internal" x="-7.10" y="5.94" incLanes=":M_0_0" intLanes=":M_6_0 :M_8_0 :M_13_0 :M_c0_0 :M_c2_0"/>
    <junction id=":M_15_0" type="internal" x="-3.20" y="5.27" incLanes=":M_2_0 NM_1" intLanes=":M_1_0 :M_6_0 :M_8_0 :M_13_0 :M_c0_0 :M_c2_0"/>
    <junction id=":M_16_0" type="internal" x="0.00" y="9.50" incLanes=":M_4_0 SM_1 SM_2 WM_1 WM_2" intLanes=":M_5_0 :M_7_0 :M_11_0 :M_12_0 :M_c0_0 :M_c0_0"/>
    <junction id=":M_17_0" type="internal" x="0.00" y="1.32" incLanes=":M_6_0 NM_1 NM_2" intLanes=":M_0_0 :M_1_0 :M_2_0 :M_3_0 :M_7_0 :M_11_0 :M_12_0 :M_13_0 :M_c1_0 :M_c2_0"/>
    <junction id=":M_18_0" type="internal" x="0.00" y="-4.20" incLanes=":M_8_0 NM_1 NM_2" intLanes=":M_0_0 :M_1_0 :M_2_0 :M_3_0 :M_11_0 :M_12_0 :M_13_0 :M_c1_0 :M_c2_0"/>
    <junction id=":M_19_0" type="internal" x="0.00" y="-9.50" incLanes=":M_9_0 NM_1 NM_2 WM_1" intLanes=":M_1_0 :M_3_0 :M_10_0 :M_c1_0 :M_c1_0"/>

    <connection from="NM" to="MW" fromLane="1" toLane="1" via=":M_0_0" dir="r" state="m"/>
    <connection from="NM" to="MS" fromLane="1" toLane="1" via=":M_1_0" dir="s" state="m"/>
    <connection from="NM" to="MW" fromLane="2" toLane="2" via=":M_2_0" dir="r" state="m"/>
    <connection from="NM" to="MS" fromLane="2" toLane="2" via=":M_3_0" dir="s" state="m"/>
    <connection from="NM" to="MN" fromLane="2" toLane="2" via=":M_4_0" dir="t" state="m"/>
    <connection from="SM" to="MN" fromLane="1" toLane="1" via=":M_5_0" dir="s" state="m"/>
    <connection from="SM" to="MW" fromLane="1" toLane="1" via=":M_6_0" dir="l" state="m"/>
    <connection from="SM" to="MN" fromLane="2" toLane="2" via=":M_7_0" dir="s" state="m"/>
    <connection from="SM" to="MW" fromLane="2" toLane="2" via=":M_8_0" dir="l" state="m"/>
    <connection from="SM" to="MS" fromLane="2" toLane="2" via=":M_9_0" dir="t" state="m"/>
    <connection from="WM" to="MS" fromLane="1" toLane="1" via=":M_10_0" dir="r" state="m"/>
    <connection from="WM" to="MN" fromLane="1" toLane="1" via=":M_11_0" dir="l" state="m"/>
    <connection from="WM" to="MN" fromLane="2" toLane="2" via=":M_12_0" dir="l" state="m"/>
    <connection from="WM" to="MW" fromLane="2" toLane="2" via=":M_13_0" dir="t" state="m"/>

    <connection from=":M_0" to="MW" fromLane="0" toLane="1" via=":M_14_0" dir="r" state="m"/>
    <connection from=":M_14" to="MW" fromLane="0" toLane="1" dir="r" state="M"/>
    <connection from=":M_1" to="MS" fromLane="0" toLane="1" dir="s" state="M"/>
    <connection from=":M_2" to="MW" fromLane="0" toLane="2" via=":M_15_0" dir="r" state="m"/>
    <connection from=":M_15" to="MW" fromLane="0" toLane="2" dir="r" state="M"/>
    <connection from=":M_3" to="MS" fromLane="0" toLane="2" dir="s" state="M"/>
    <connection from=":M_4" to="MN" fromLane="0" toLane="2" via=":M_16_0" dir="t" state="m"/>
    <connection from=":M_16" to="MN" fromLane="0" toLane="2" dir="t" state="M"/>
    <connection from=":M_5" to="MN" fromLane="0" toLane="1" dir="s" state="M"/>
    <connection from=":M_6" to="MW" fromLane="0" toLane="1" via=":M_17_0" dir="l" state="m"/>
    <connection from=":M_17" to="MW" fromLane="0" toLane="1" dir="l" state="M"/>
    <connection from=":M_7" to="MN" fromLane="0" toLane="2" dir="s" state="M"/>
    <connection from=":M_8" to="MW" fromLane="0" toLane="2" via=":M_18_0" dir="l" state="m"/>
    <connection from=":M_18" to="MW" fromLane="0" toLane="2" dir="l" state="M"/>
    <connection from=":M_9" to="MS" fromLane="0" toLane="2" via=":M_19_0" dir="t" state="m"/>
    <connection from=":M_19" to="MS" fromLane="0" toLane="2" dir="t" state="M"/>
    <connection from=":M_10" to="MS" fromLane="0" toLane="1" dir="r" state="M"/>
    <connection from=":M_11" to="MN" fromLane="0" toLane="1" dir="l" state="M"/>
    <connection from=":M_12" to="MN" fromLane="0" toLane="2" dir="l" state="M"/>
    <connection from=":M_13" to="MW" fromLane="0" toLane="2" dir="t" state="M"/>

    <connection from=":M_c0" to=":M_w0" fromLane="0" toLane="0" dir="s" state="M"/>
    <connection from=":M_c1" to=":M_w1" fromLane="0" toLane="0" dir="s" state="M"/>
    <connection from=":M_c2" to=":M_w2" fromLane="0" toLane="0" dir="s" state="M"/>
    <connection from=":M_w0" to=":M_c2" fromLane="0" toLane="0" dir="s" state="M"/>
    <connection from=":M_w0" to="MW" fromLane="0" toLane="0" dir="s" state="M"/>
    <connection from="NM" to=":M_w0" fromLane="0" toLane="0" dir="s" state="M"/>
    <connection from=":M_w1" to=":M_c0" fromLane="0" toLane="0" dir="s" state="M"/>
    <connection from=":M_w1" to="MN" fromLane="0" toLane="0" dir="s" state="M"/>
    <connection from="SM" to=":M_w1" fromLane="0" toLane="0" dir="s" state="M"/>
    <connection from=":M_w2" to=":M_c1" fromLane="0" toLane="0" dir="s" state="M"/>
    <connection from=":M_w2" to="MS" fromLane="0" toLane="0" dir="s" state="M"/>
    <connection from="WM" to=":M_w2" fromLane="0" toLane="0" dir="s" state="M"/>
    <connection from=":N_w0" to="NM" fromLane="0" toLane="0" dir="s" state="M"/>
    <connection from="MN" to=":N_w0" fromLane="0" toLane="0" dir="s" state="M"/>
    <connection from=":S_w0" to="SM" fromLane="0" toLane="0" dir="s" state="M"/>
    <connection from="MS" to=":S_w0" fromLane="0" toLane="0" dir="s" state="M"/>
    <connection from=":W_w0" to="WM" fromLane="0" toLane="0" dir="s" state="M"/>
    <connection from="MW" to=":W_w0" fromLane="0" toLane="0" dir="s" state="M"/>
</net>
