<?xml version="1.0" encoding="UTF-8"?>

<!-- generated on 06/22/20 19:43:04 by Eclipse SUMO netedit Version 1.3.1
<configuration xmlns:xsi="http://www.w3.org/2001/XMLSchema-instance" xsi:noNamespaceSchemaLocation="http://sumo.dlr.de/xsd/netconvertConfiguration.xsd">

    <input>
        <sumo-net-file value="C:\Users\Gman\Desktop\DivideRamp.net.xml"/>
    </input>

    <output>
        <output-file value="C:\Users\Gman\Desktop\DivideRamp.net.xml"/>
    </output>

    <processing>
        <geometry.max-grade.fix value="false"/>
        <offset.disable-normalization value="true"/>
        <opposites.guess.fix-lengths value="true"/>
        <lefthand value="false"/>
    </processing>

    <junctions>
        <no-turnarounds value="true"/>
        <junctions.corner-detail value="5"/>
        <junctions.limit-turn-speed value="5.5"/>
        <rectangular-lane-cut value="false"/>
    </junctions>

    <pedestrian>
        <walkingareas value="false"/>
    </pedestrian>

</configuration>
-->

<net version="1.3" junctionCornerDetail="5" limitTurnSpeed="5.50" xmlns:xsi="http://www.w3.org/2001/XMLSchema-instance" xsi:noNamespaceSchemaLocation="http://sumo.dlr.de/xsd/net_file.xsd">

    <location netOffset="0.00,0.00" convBoundary="0.00,-20.00,100.00,0.00" origBoundary="-10000000000.00,-10000000000.00,10000000000.00,10000000000.00" projParameter="!"/>

    <edge id=":M_0" function="internal">
        <lane id=":M_0_0" index="0" speed="13.89" length="11.63" shape="47.88,-1.60 51.05,-1.91 53.48,-2.72 55.84,-3.89 58.80,-5.24"/>
    </edge>
    <edge id=":M_1" function="internal">
        <lane id=":M_1_0" index="0" speed="13.89" length="11.62" shape="47.88,-1.60 59.50,-1.60"/>
    </edge>

    <edge id="ME" from="M" to="E" priority="-1">
        <lane id="ME_0" index="0" speed="13.89" length="40.50" shape="59.50,-1.60 100.00,-1.60"/>
    </edge>
    <edge id="MS" from="M" to="S" priority="-1">
        <lane id="MS_0" index="0" speed="13.89" length="43.74" shape="58.80,-5.24 99.41,-21.49"/>
    </edge>
    <edge id="WM" from="W" to="M" priority="-1">
        <lane id="WM_0" index="0" speed="13.89" length="47.88" shape="0.00,-1.60 47.88,-1.60"/>
    </edge>

    <junction id="E" type="dead_end" x="100.00" y="0.00" incLanes="ME_0" intLanes="" shape="100.00,-3.20 100.00,0.00"/>
    <junction id="M" type="priority" x="50.00" y="0.00" incLanes="WM_0" intLanes=":M_0_0 :M_1_0" shape="59.50,0.00 59.50,-3.20 59.39,-3.76 58.20,-6.73 56.06,-5.76 54.49,-4.91 53.19,-4.20 51.86,-3.66 50.19,-3.32 47.88,-3.20 47.88,0.00">
        <request index="0" response="00" foes="00" cont="0"/>
        <request index="1" response="00" foes="00" cont="0"/>
    </junction>
    <junction id="S" type="dead_end" x="100.00" y="-20.00" incLanes="MS_0" intLanes="" shape="98.81,-22.97 100.00,-20.00"/>
    <junction id="W" type="dead_end" x="0.00" y="0.00" incLanes="" intLanes="" shape="0.00,0.00 0.00,-3.20"/>

    <connection from="WM" to="MS" fromLane="0" toLane="0" via=":M_0_0" dir="R" state="M"/>
    <connection from="WM" to="ME" fromLane="0" toLane="0" via=":M_1_0" dir="s" state="M"/>

    <connection from=":M_0" to="MS" fromLane="0" toLane="0" dir="R" state="M"/>
    <connection from=":M_1" to="ME" fromLane="0" toLane="0" dir="s" state="M"/>

</net>
