<?xml version='1.0' encoding='utf-8'?>
<routes>
	<!-- <parkingArea id="Park0" lane="WE_0" startPos="0" endPos="100" roadsideCapacity="5" angle="90" length="60"/> -->
	<vType carFollowModel="IDM" color="255,255,0" id="passenger" laneChangeModel="LC2013" length="6" minGap="0" minGapLat="0" vClass="passenger" />
	<vType carFollowModel="IDM" color="0,255,255" id="trailer" laneChangeModel="LC2013" length="10" minGap="0" minGapLat="0" vClass="trailer" />
	
	<vehicle id="0" depart="0" departPos="60" departSpeed="0" type="passenger" departLane="0">
		<route edges="WE" />
		<stop parkingArea="Park0" duration="9"/>
	</vehicle>
	<vehicle id="1" depart="1" departPos="0" departSpeed="10" type="trailer" departLane="0">
		<route edges="WE" />
	</vehicle>
	
</routes>